@<TRIPOS>MOLECULE
*****
 12 12 0 0 0
SMALL
GASTEIGER

@<TRIPOS>ATOM
      1 C          -0.0887    0.1082    0.0960 C.ar    1  LIG1        0.0454
      2 C           0.3738   -1.2636   -0.3224 C.ar    1  LIG1        0.0237
      3 N           1.6886   -1.3293    0.4360 N.ar    1  LIG1       -0.3399
      4 N           1.1955    0.9102   -0.0683 N.ar    1  LIG1       -0.2441
      5 C           2.6129   -2.4356   -0.0642 C.3     1  LIG1        0.0127
      6 H           3.5569   -2.4297    0.5206 H       1  LIG1        0.0456
      7 H           2.8564   -2.2825   -1.1374 H       1  LIG1        0.0456
      8 H           2.1232   -3.4248    0.0587 H       1  LIG1        0.0456
      9 C           2.2955   -0.0017    0.2752 C.ar    1  LIG1        0.0956
     10 H          -1.0216    0.4195    0.4087 H       1  LIG1        0.0845
     11 H          -0.0726   -1.9566   -0.9433 H       1  LIG1        0.0825
     12 H           3.2927    0.2416    0.3819 H       1  LIG1        0.1028
@<TRIPOS>BOND
     1     1     2   ar
     2     2     3   ar
     3     1     4   ar
     4     3     5    1
     5     5     6    1
     6     5     7    1
     7     5     8    1
     8     4     9   ar
     9     9     3   ar
    10     1    10    1
    11     2    11    1
    12     9    12    1
